
 OpenBabel08072309223D

 25 25  0  0  0  0  0  0  0  0999 V2000
   -3.0483    0.8754   -0.2402 C   0  0  0  0  0  0  0  0  0  0  0  0
   -4.5491    0.8827    0.0141 C   0  0  0  0  0  0  0  0  0  0  0  0
   -4.9348   -0.5811    0.1812 C   0  0  0  0  0  0  0  0  0  0  0  0
   -5.0959    1.3554   -0.8082 H   0  0  0  0  0  0  0  0  0  0  0  0
   -4.7862    1.4324    0.9329 H   0  0  0  0  0  0  0  0  0  0  0  0
   -3.6257   -1.3507    0.1004 C   0  0  0  0  0  0  0  0  0  0  0  0
   -5.6314   -0.9039   -0.6000 H   0  0  0  0  0  0  0  0  0  0  0  0
   -5.4236   -0.7337    1.1500 H   0  0  0  0  0  0  0  0  0  0  0  0
   -2.6006   -0.3502    0.4210 N   0  0  0  0  0  0  0  0  0  0  0  0
   -2.5769    1.7684    0.1825 H   0  0  0  0  0  0  0  0  0  0  0  0
   -2.8531    0.8506   -1.3192 H   0  0  0  0  0  0  0  0  0  0  0  0
   -3.5016   -1.7450   -0.9166 H   0  0  0  0  0  0  0  0  0  0  0  0
   -3.6093   -2.1917    0.8008 H   0  0  0  0  0  0  0  0  0  0  0  0
   -1.2705   -0.8117   -0.0005 C   0  0  0  0  0  0  0  0  0  0  0  0
   -0.1264    0.1853    0.2390 C   0  0  0  0  0  0  0  0  0  0  0  0
   -1.2673   -1.0869   -1.0641 H   0  0  0  0  0  0  0  0  0  0  0  0
   -1.0321   -1.7347    0.5445 H   0  0  0  0  0  0  0  0  0  0  0  0
    1.1151   -0.4770   -0.0257 O   0  0  0  0  0  0  0  0  0  0  0  0
   -0.1293    0.5347    1.2777 H   0  0  0  0  0  0  0  0  0  0  0  0
   -0.2311    1.0468   -0.4309 H   0  0  0  0  0  0  0  0  0  0  0  0
    2.2040    0.4254   -0.0040 C   0  0  0  0  0  0  0  0  0  0  0  0
    3.3959   -0.3015   -0.2229 O   0  0  0  0  0  0  0  0  0  0  0  0
    2.2731    0.9424    0.9585 H   0  0  0  0  0  0  0  0  0  0  0  0
    2.1009    1.1574   -0.8106 H   0  0  0  0  0  0  0  0  0  0  0  0
    3.4663   -0.8980    0.5390 H   0  0  0  0  0  0  0  0  0  0  0  0
  1  2  1  0  0  0  0
  1  9  1  0  0  0  0
  1 10  1  0  0  0  0
  1 11  1  0  0  0  0
  2  3  1  0  0  0  0
  2  4  1  0  0  0  0
  2  5  1  0  0  0  0
  3  6  1  0  0  0  0
  3  7  1  0  0  0  0
  3  8  1  0  0  0  0
  6  9  1  0  0  0  0
  6 12  1  0  0  0  0
  6 13  1  0  0  0  0
  9 14  1  0  0  0  0
 14 15  1  0  0  0  0
 14 16  1  0  0  0  0
 14 17  1  0  0  0  0
 15 18  1  0  0  0  0
 15 19  1  0  0  0  0
 15 20  1  0  0  0  0
 18 21  1  0  0  0  0
 21 22  1  0  0  0  0
 21 23  1  0  0  0  0
 21 24  1  0  0  0  0
 22 25  1  0  0  0  0
M  END
